XYZ file generated by Avogadro.
 OpenBabel08062612202D

105 84  0  0  1  0  0  0  0  0999 V2000
   26.3593  -13.2321    0.0000 N   0  0  0  0  0 15  0  0  0  0  0  0
   24.4932   -4.3660    0.0000 C   0  0  0  0  0  2  0  0  0  0  0  0
   23.6272   -6.8660    0.0000 O   0  0  0  0  0 15  0  0  0  0  0  0
   23.4932  -18.2321    0.0000 C   0  0  0  0  0  2  0  0  0  0  0  0
   19.7612  -18.7321    0.0000 C   0  0  0  0  0  2  0  0  0  0  0  0
   24.7612   -1.0000    0.0000 C   0  0  0  0  0  2  0  0  0  0  0  0
    4.1666   -1.8551    0.0000 N   0  0  0  0  0  1  0  0  0  0  0  0
    3.3075   -2.3511    0.0000 C   0  0  0  0  0  0  0  0  0  0  0  0
    3.8035   -3.2102    0.0000 C   0  0  0  0  0  0  0  0  0  0  0  0
   24.3593   -8.2321    0.0000 C   0  0  0  0  0  2  0  0  0  0  0  0
    4.7955   -3.2102    0.0000 N   0  0  0  0  0  0  0  0  0  0  0  0
    5.2915   -2.3511    0.0000 C   0  0  0  0  0  0  0  0  0  0  0  0
    4.7955   -1.4920    0.0000 C   0  0  0  0  0  0  0  0  0  0  0  0
    5.6546   -0.9960    0.0000 N   0  0  0  0  0  1  0  0  0  0  0  0
   24.3593  -10.7321    0.0000 C   0  0  0  0  0  2  0  0  0  0  0  0
   19.7612  -13.7321    0.0000 C   0  0  0  0  0  2  0  0  0  0  0  0
   23.4932  -15.7321    0.0000 C   0  0  0  0  0  2  0  0  0  0  0  0
   24.3593  -16.2321    0.0000 O   0  0  0  0  0  1  0  0  0  0  0  0
   23.8952   -3.0000    0.0000 C   0  0  0  0  0  2  0  0  0  0  0  0
   19.7612  -16.2321    0.0000 C   0  0  0  0  0  2  0  0  0  0  0  0
   18.8952  -15.7321    0.0000 O   0  0  0  0  0  1  0  0  0  0  0  0
    5.2915   -4.0693    0.0000 C   0  0  0  0  0  0  0  0  0  0  0  0
    4.7955   -4.9284    0.0000 C   0  0  0  0  0  0  0  0  0  0  0  0
    3.8035   -4.9284    0.0000 O   0  0  0  0  0  0  0  0  0  0  0  0
   25.6272   -6.8660    0.0000 H   0  0  0  0  0 15  0  0  0  0  0  0
   24.8952   -3.0000    0.0000 O   0  0  0  0  0  0  0  0  0  0  0  0
   22.6272  -16.2321    0.0000 O   0  0  0  0  0  1  0  0  0  0  0  0
   27.6272   -0.5000    0.0000 H   0  0  0  0  0 15  0  0  0  0  0  0
   20.6272  -15.7321    0.0000 O   0  0  0  0  0  1  0  0  0  0  0  0
   27.3593   -4.3660    0.0000 H   0  0  0  0  0 15  0  0  0  0  0  0
    5.2915   -5.7875    0.0000 N   0  0  0  0  0  0  0  0  0  0  0  0
    4.7955   -6.6466    0.0000 C   0  0  2  0  0  0  0  0  0  0  0  0
    3.9364   -6.1506    0.0000 C   0  0  0  0  0  0  0  0  0  0  0  0
    3.0773   -6.6466    0.0000 C   0  0  0  0  0  0  0  0  0  0  0  0
    2.2182   -6.1506    0.0000 C   0  0  0  0  0  0  0  0  0  0  0  0
    3.0773   -7.6386    0.0000 C   0  0  0  0  0  0  0  0  0  0  0  0
    2.2182   -8.1346    0.0000 C   0  0  0  0  0  0  0  0  0  0  0  0
    1.3591   -6.6466    0.0000 C   0  0  0  0  0  0  0  0  0  0  0  0
    1.3591   -7.6386    0.0000 C   0  0  0  0  0  0  0  0  0  0  0  0
    5.6546   -7.1426    0.0000 C   0  0  0  0  0  0  0  0  0  0  0  0
    6.5137   -6.6466    0.0000 O   0  0  0  0  0  0  0  0  0  0  0  0
    5.6546   -8.1346    0.0000 N   0  0  0  0  0  0  0  0  0  0  0  0
    6.5137   -8.6306    0.0000 C   0  0  1  0  0  0  0  0  0  0  0  0
    7.0097   -7.7715    0.0000 C   0  0  0  0  0  0  0  0  0  0  0  0
    8.0017   -7.7715    0.0000 S   0  0  0  0  0  0  0  0  0  0  0  0
    6.5137  -10.3488    0.0000 N   0  0  0  0  0  0  0  0  0  0  0  0
    6.0177   -9.4897    0.0000 C   0  0  0  0  0  0  0  0  0  0  0  0
    5.0257   -9.4897    0.0000 O   0  0  0  0  0  0  0  0  0  0  0  0
    6.0177  -11.2079    0.0000 C   0  0  2  0  0  0  0  0  0  0  0  0
    6.8768  -11.7039    0.0000 C   0  0  0  0  0  0  0  0  0  0  0  0
    1.7222  -12.6959    0.0000 O   0  0  0  0  0  0  0  0  0  0  0  0
    5.1586  -10.7119    0.0000 C   0  0  0  0  0  0  0  0  0  0  0  0
    7.7359  -11.2079    0.0000 O   0  0  0  0  0  0  0  0  0  0  0  0
    6.8768  -12.6959    0.0000 N   0  0  0  0  0  0  0  0  0  0  0  0
    2.5813  -11.2079    0.0000 C   0  0  0  0  0  0  0  0  0  0  0  0
    2.5813  -12.1999    0.0000 C   0  0  0  0  0  0  0  0  0  0  0  0
    4.2995  -11.2079    0.0000 C   0  0  0  0  0  0  0  0  0  0  0  0
    4.2995  -12.1999    0.0000 C   0  0  0  0  0  0  0  0  0  0  0  0
    3.4404  -10.7119    0.0000 C   0  0  0  0  0  0  0  0  0  0  0  0
    3.4404  -12.6959    0.0000 C   0  0  0  0  0  0  0  0  0  0  0  0
    7.7359  -13.1919    0.0000 C   0  0  2  0  0  0  0  0  0  0  0  0
    8.2319  -12.3328    0.0000 C   0  0  0  0  0  0  0  0  0  0  0  0
    7.2399  -14.0510    0.0000 C   0  0  0  0  0  0  0  0  0  0  0  0
    9.2239  -12.3328    0.0000 C   0  0  0  0  0  0  0  0  0  0  0  0
    6.2479  -14.0510    0.0000 O   0  0  0  0  0  0  0  0  0  0  0  0
    9.8070  -13.1353    0.0000 C   0  0  0  0  0  0  0  0  0  0  0  0
   10.7504  -11.8368    0.0000 C   0  0  0  0  0  0  0  0  0  0  0  0
    9.8070  -11.5302    0.0000 C   0  0  0  0  0  0  0  0  0  0  0  0
   10.7504  -12.8288    0.0000 N   0  0  0  0  0  0  0  0  0  0  0  0
   11.2814  -10.2027    0.0000 C   0  0  0  0  0  0  0  0  0  0  0  0
   11.4876  -11.1730    0.0000 C   0  0  0  0  0  0  0  0  0  0  0  0
    9.6007  -10.5599    0.0000 C   0  0  0  0  0  0  0  0  0  0  0  0
   10.3379   -9.8961    0.0000 C   0  0  0  0  0  0  0  0  0  0  0  0
    7.7359  -14.9101    0.0000 N   0  0  0  0  0  0  0  0  0  0  0  0
    5.2559  -17.4874    0.0000 O   0  0  0  0  0  0  0  0  0  0  0  0
    6.7439  -16.6283    0.0000 C   0  0  1  0  0  0  0  0  0  0  0  0
    7.6030  -17.1243    0.0000 C   0  0  0  0  0  0  0  0  0  0  0  0
    8.4621  -16.6283    0.0000 C   0  0  0  0  0  0  0  0  0  0  0  0
    6.2479  -17.4874    0.0000 C   0  0  0  0  0  0  0  0  0  0  0  0
    6.7439  -18.3465    0.0000 N   0  0  0  0  0  0  0  0  0  0  0  0
    9.3212  -17.1243    0.0000 C   0  0  0  0  0  0  0  0  0  0  0  0
   10.1803  -16.6283    0.0000 C   0  0  0  0  0  0  0  0  0  0  0  0
   11.0394  -17.1243    0.0000 N   0  0  0  0  0  0  0  0  0  0  0  0
    6.2479  -19.2056    0.0000 C   0  0  0  0  0  2  0  0  0  0  0  0
   19.7612   -8.7321    0.0000 C   0  0  0  0  0  2  0  0  0  0  0  0
   20.7612   -4.7321    0.0000 C   0  0  0  0  0  2  0  0  0  0  0  0
   18.8952   -8.2321    0.0000 O   0  0  0  0  0  1  0  0  0  0  0  0
   19.7612  -10.7321    0.0000 C   0  0  0  0  0  2  0  0  0  0  0  0
   20.6272   -8.2321    0.0000 N   0  0  0  0  0  2  0  0  0  0  0  0
   20.6272  -11.2321    0.0000 N   0  0  0  0  0  2  0  0  0  0  0  0
   19.3952   -1.5000    0.0000 S   0  0  0  0  0  0  0  0  0  0  0  0
   20.8952   -2.3660    0.0000 C   0  0  0  0  0  2  0  0  0  0  0  0
   18.8952  -11.2321    0.0000 O   0  0  0  0  0  1  0  0  0  0  0  0
   20.3952   -1.5000    0.0000 C   0  0  0  0  0  0  0  0  0  0  0  0
   16.0291   -2.0000    0.0000 C   0  0  0  0  0  2  0  0  0  0  0  0
   19.8952   -5.2321    0.0000 C   0  0  0  0  0  0  0  0  0  0  0  0
   27.2253   -8.2321    0.0000 O   0  0  0  0  0 15  0  0  0  0  0  0
   27.2253  -10.7321    0.0000 H   0  0  0  0  0 15  0  0  0  0  0  0
   15.1631   -1.5000    0.0000 C   0  0  0  0  0  0  0  0  0  0  0  0
   23.4932  -13.2321    0.0000 C   0  0  0  0  0  2  0  0  0  0  0  0
   15.1631   -0.5000    0.0000 O   0  0  0  0  0  0  0  0  0  0  0  0
   24.3593  -13.7321    0.0000 O   0  0  0  0  0  1  0  0  0  0  0  0
   14.2971   -2.0000    0.0000 C   0  0  0  0  0  0  0  0  0  0  0  0
   22.6272  -13.7321    0.0000 O   0  0  0  0  0  1  0  0  0  0  0  0
   26.3593  -15.7321    0.0000 H   0  0  0  0  0 15  0  0  0  0  0  0
  8  7  1  0  0  0  0
  8  9  1  0  0  0  0
  9 11  1  0  0  0  0
 11 12  1  0  0  0  0
 12 13  1  0  0  0  0
 13 14  1  0  0  0  0
 18 17  1  0  0  0  0
 20 21  1  0  0  0  0
 22 11  1  0  0  0  0
 22 23  1  0  0  0  0
 23 24  2  0  0  0  0
 23 31  1  0  0  0  0
 26 19  2  0  0  0  0
 27 17  1  0  0  0  0
 29 20  1  0  0  0  0
 31 32  1  0  0  0  0
 32 33  1  1  0  0  0
 32 40  1  0  0  0  0
 34 36  1  0  0  0  0
 34 33  1  0  0  0  0
 35 34  2  0  0  0  0
 37 36  2  0  0  0  0
 38 39  2  0  0  0  0
 38 35  1  0  0  0  0
 39 37  1  0  0  0  0
 40 41  2  0  0  0  0
 42 40  1  0  0  0  0
 42 43  1  0  0  0  0
 43 44  1  1  0  0  0
 44 45  1  0  0  0  0
 46 49  1  0  0  0  0
 47 43  1  0  0  0  0
 47 46  1  0  0  0  0
 48 47  2  0  0  0  0
 49 52  1  6  0  0  0
 50 49  1  0  0  0  0
 50 53  2  0  0  0  0
 52 57  1  0  0  0  0
 54 50  1  0  0  0  0
 55 56  1  0  0  0  0
 56 51  1  0  0  0  0
 57 59  1  0  0  0  0
 57 58  2  0  0  0  0
 58 60  1  0  0  0  0
 59 55  2  0  0  0  0
 60 56  2  0  0  0  0
 61 54  1  0  0  0  0
 61 62  1  6  0  0  0
 62 64  1  0  0  0  0
 63 61  1  0  0  0  0
 64 66  2  0  0  0  0
 65 63  2  0  0  0  0
 66 69  1  0  0  0  0
 67 69  1  0  0  0  0
 68 64  1  0  0  0  0
 68 67  2  0  0  0  0
 70 71  2  0  0  0  0
 71 67  1  0  0  0  0
 72 68  1  0  0  0  0
 73 72  2  0  0  0  0
 73 70  1  0  0  0  0
 74 63  1  0  0  0  0
 76 74  1  0  0  0  0
 76 77  1  6  0  0  0
 77 78  1  0  0  0  0
 79 75  2  0  0  0  0
 79 76  1  0  0  0  0
 80 79  1  0  0  0  0
 81 78  1  0  0  0  0
 81 82  1  0  0  0  0
 83 82  1  0  0  0  0
 84 80  1  0  0  0  0
 85 87  1  0  0  0  0
 86 96  1  0  0  0  0
 88 93  1  0  0  0  0
 89 85  1  0  0  0  0
 90 88  1  0  0  0  0
 92 94  1  0  0  0  0
 94 91  1  0  0  0  0
 95 99  1  0  0  0  0
 99101  2  0  0  0  0
 99103  1  0  0  0  0
100104  1  0  0  0  0
102100  1  0  0  0  0
M  END
